// $Id: IEEE13-Feb27.glm
//	Copyright (C) 2011 Battelle Memorial Institute

#set iteration_limit=100000;

clock {
	timezone EST+5EDT;
	starttime '2000-01-01 0:01:00';
	stoptime '2000-12-30 23:01:00';
}

module powerflow {
	solver_method NR;
	line_capacitance true;
	}
module assert;
module tape;

// Phase Conductor for 601: 556,500 26/7 ACSR
object overhead_line_conductor {
	name olc6010;
	geometric_mean_radius 0.031300;
	diameter 0.927 in;
	resistance 0.185900;
}

// Phase Conductor for 602: 4/0 6/1 ACSR
object overhead_line_conductor {
	name olc6020;
	geometric_mean_radius 0.00814;
	diameter 0.56 in;
	resistance 0.592000;
}

// Phase Conductor for 603, 604, 605: 1/0 ACSR
object overhead_line_conductor {
	name olc6030;
	geometric_mean_radius 0.004460;
	diameter 0.4 in;
	resistance 1.120000;
}


// Phase Conductor for 606: 250,000 AA,CN
object underground_line_conductor { 
	 name ulc6060;
	 outer_diameter 1.290000;
	 conductor_gmr 0.017100;
	 conductor_diameter 0.567000;
	 conductor_resistance 0.410000;
	 neutral_gmr 0.0020800; 
	 neutral_resistance 14.87200;  
	 neutral_diameter 0.0640837;
	 neutral_strands 13.000000;
	 insulation_relative_permitivitty 2.3;
	 shield_gmr 0.000000;
	 shield_resistance 0.000000;
}

// Phase Conductor for 607: 1/0 AA,TS N: 1/0 Cu
object underground_line_conductor { 
	 name ulc6070;
	 outer_diameter 1.060000;
	 conductor_gmr 0.011100;
	 conductor_diameter 0.368000;
	 conductor_resistance 0.970000;
	 neutral_gmr 0.011100;
	 neutral_resistance 0.970000; // Unsure whether this is correct
	 neutral_diameter 0.0640837;
	 neutral_strands 6.000000;
	 insulation_relative_permitivitty 2.3;
	 shield_gmr 0.000000;
	 shield_resistance 0.000000;
}

// Overhead line configurations
object line_spacing {
	name ls500601;
	distance_AB 2.5;
	distance_AC 4.5;
	distance_BC 7.0;
	distance_BN 5.656854;
	distance_AN 4.272002;
	distance_CN 5.0;
	distance_AE 28.0;
	distance_BE 28.0;
	distance_CE 28.0;
	distance_NE 24.0;
}

// Overhead line configurations
object line_spacing {
	name ls500602;
	distance_AC 2.5;
	distance_AB 4.5;
	distance_BC 7.0;
	distance_CN 5.656854;
	distance_AN 4.272002;
	distance_BN 5.0;
	distance_AE 28.0;
	distance_BE 28.0;
	distance_CE 28.0;
	distance_NE 24.0;
}

object line_spacing {
	name ls505603;
	distance_BC 7.0;
	distance_CN 5.656854;
	distance_BN 5.0;
	distance_BE 28.0;
	distance_CE 28.0;
	distance_NE 24.0;
}

object line_spacing {
	name ls505604;
	distance_AC 7.0;
	distance_AN 5.656854;
	distance_CN 5.0;
	distance_AE 28.0;
	distance_CE 28.0;
	distance_NE 24.0;
}

object line_spacing {
	name ls510;
	distance_CN 5.0;
	distance_CE 28.0;
	distance_NE 24.0;
}

object line_configuration {
	name lc601;
	conductor_A olc6010;
	conductor_B olc6010;
	conductor_C olc6010;
	conductor_N olc6020;
	spacing ls500601;
}

object line_configuration {
	name lc602;
	conductor_A olc6020;
	conductor_B olc6020;
	conductor_C olc6020;
	conductor_N olc6020;
	spacing ls500602;
}

object line_configuration {
	name lc603;
	conductor_B olc6030;
	conductor_C olc6030;
	conductor_N olc6030;
	spacing ls505603;
}

object line_configuration {
	name lc604;
	conductor_A olc6030;
	conductor_C olc6030;
	conductor_N olc6030;
	spacing ls505604;
}

object line_configuration {
	name lc605;
	conductor_C olc6030;
	conductor_N olc6030;
	spacing ls510;
}

//Underground line configuration
object line_spacing {
	 name ls515;
	 distance_AB 0.500000;
	 distance_BC 0.500000;
	 distance_AC 1.000000;
}

object line_spacing {
	 name ls520;
	 distance_AN 0.083333;
}

object line_configuration {
	 name lc606;
	 conductor_A ulc6060;
	 conductor_B ulc6060;
	 conductor_C ulc6060;
	 spacing ls515;
}

object line_configuration {
	 name lc607;
	 conductor_A ulc6070;
	 conductor_N ulc6070;
	 spacing ls520;
}

// Define line objects
object overhead_line {
     phases "BCN";
     name line_632-645;
     from n632;
     to l645;
     length 500;
     configuration lc603;
}

object overhead_line {
     phases "BCN";
     name line_645-646;
    from l645;
     to l646;
     length 300;
     configuration lc603;
}

object overhead_line { //630632 {
     phases "ABCN";
     name line_630-632;
     from n630;
     to n632;
     length 2000;
     configuration lc601;
}

//Split line for distributed load
object overhead_line { //6326321 {
     phases "ABCN";
     name line_632-6321;
     from n632;
     to l6321;
     length 500;
     configuration lc601;
}

object overhead_line { //6321671 {
     phases "ABCN";
     name line_6321-671;
    from l6321;
     to l671;
     length 1500;
     configuration lc601;
}
//End split line

object overhead_line { //671680 {
     phases "ABCN";
     name line_671-680;
    from l671;
     to n680;
     length 1000;
     configuration lc601;
}

object overhead_line { //671684 {
     phases "ACN";
     name line_671-684;
    from l671;
     to n684;
     length 300;
     configuration lc604;
}

 object overhead_line { //684611 {
      phases "CN";
      name line_684-611;
      from n684;
      to l611;
      length 300;
      configuration lc605;
}

object underground_line { //684652 {
      phases "AN";
      name line_684-652;
      from n684;
      to l652;
      length 800;
      configuration lc607;
}

object underground_line { //692675 {
     phases "ABC";
     name line_692-675;
    from l692;
     to l675;
     length 500;
     configuration lc606;
}

object overhead_line { //632633 {
     phases "ABCN";
     name line_632-633;
     from n632;
     to n633;
     length 500;
     configuration lc602;
}

// Create node objects
object meter { //633 {
     name n633;
     phases "ABCN";
     voltage_A 2401.7771;
     voltage_B -1200.8886-2080.000j;
     voltage_C -1200.8886+2080.000j;
     nominal_voltage 2401.7771;
}

object meter { //630 {
     name n630;
     phases "ABCN";
     voltage_A 2401.7771+0j;
     voltage_B -1200.8886-2080.000j;
     voltage_C -1200.8886+2080.000j;
     nominal_voltage 2401.7771;
}
 
object meter { //632 {
     name n632;
     phases "ABCN";
     voltage_A 2401.7771;
     voltage_B -1200.8886-2080.000j;
     voltage_C -1200.8886+2080.000j;
     nominal_voltage 2401.7771;
}

object meter { //650 {
      name n650;
      phases "ABCN";
      bustype SWING;
      voltage_A 2401.7771;
      voltage_B -1200.8886-2080.000j;
      voltage_C -1200.8886+2080.000j;
      nominal_voltage 2401.7771;
} 
 
object meter { //680 {
       name n680;
       phases "ABCN";
       voltage_A 2401.7771;
       voltage_B -1200.8886-2080.000j;
       voltage_C -1200.8886+2080.000j;
       nominal_voltage 2401.7771;
}
 
 
object meter { //684 {
      name n684;
      phases "ACN";
      voltage_A 2401.7771;
      voltage_B -1200.8886-2080.000j;
      voltage_C -1200.8886+2080.000j;
      nominal_voltage 2401.7771;
} 
 
 
 
// Create load objects 
object meter{
	name meter_Load634;
	phases "ABCN";
     voltage_A 480.000+0j;
     voltage_B -240.000-415.6922j;
     voltage_C -240.000+415.6922j;
     nominal_voltage 480.000;
}

object load { //634 {
     name l634;
	parent meter_Load634;
     phases "ABCN";
     voltage_A 480.000+0j;
     voltage_B -240.000-415.6922j;
     voltage_C -240.000+415.6922j;
     constant_power_A 160000+110000j;
     constant_power_B 120000+90000j;
     constant_power_C 120000+90000j;
     nominal_voltage 480.000;
}

object meter{
    name meter_Load645;
     phases "BCN";
     voltage_A 2401.7771;
     voltage_B -1200.8886-2080.000j;
     voltage_C -1200.8886+2080.000j;
     nominal_voltage 2401.7771;
} 
object load { //645 {
     name l645;
	parent meter_Load645;
     phases "BCN";
     voltage_A 2401.7771;
     voltage_B -1200.8886-2080.000j;
     voltage_C -1200.8886+2080.000j;
     constant_power_B 170000+125000j;
     nominal_voltage 2401.7771;
}
object meter{
    name meter_Load646;
     phases "BCD";
     voltage_A 2401.7771;
     voltage_B -1200.8886-2080.000j;
     voltage_C -1200.8886+2080.000j;
     nominal_voltage 2401.7771;
}

object load { //646 {
     name l646;
	parent meter_Load646;
     phases "BCD";
     voltage_B -1200.8886-2080.000j;
     voltage_C -1200.8886+2080.000j;
     constant_impedance_B 56.5993+32.4831j;
     nominal_voltage 2401.7771;
}
 
object meter{
    name meter_Load652;
     phases "AN";
     voltage_A 2401.7771;
     voltage_B -1200.8886-2080.000j;
     voltage_C -1200.8886+2080.000j;
     nominal_voltage 2401.7771;
}
object load { //652 {
     name l652;
	parent meter_Load652;
     phases "AN";
     voltage_A 2401.7771;
     voltage_B -1200.8886-2080.000j;
     voltage_C -1200.8886+2080.000j;
     constant_impedance_A 31.0501+20.8618j;
     nominal_voltage 2401.7771;
}
 
object load { //671 {
     name l671;
     phases "ABCD";
     voltage_A 2401.7771;
     voltage_B -1200.8886-2080.000j;
     voltage_C -1200.8886+2080.000j;
     constant_power_A 385000+220000j;
     constant_power_B 385000+220000j;
     constant_power_C 385000+220000j;
     nominal_voltage 2401.7771;
}
object meter{
    name meter_Load675;
     phases "ABC";
     voltage_A 2401.7771;
     voltage_B -1200.8886-2080.000j;
     voltage_C -1200.8886+2080.000j;
     nominal_voltage 2401.7771;
} 
object load { //675 {
     name l675;
	parent meter_Load675;
     phases "ABC";
     voltage_A 2401.7771;
     voltage_B -1200.8886-2080.000j;
     voltage_C -1200.8886+2080.000j;
     constant_power_A 485000+190000j;
     constant_power_B 68000+60000j;
     constant_power_C 290000+212000j;
     constant_impedance_A 0.00-28.8427j;          //Shunt Capacitors
     constant_impedance_B 0.00-28.8427j;
     constant_impedance_C 0.00-28.8427j;
     nominal_voltage 2401.7771;
}
 object meter{
    name meter_Load692;
     phases "ABCD";
     voltage_A 2401.7771;
     voltage_B -1200.8886-2080.000j;
     voltage_C -1200.8886+2080.000j;
     nominal_voltage 2401.7771;
}
object load { //692 {
     name l692;
	parent meter_Load692;
     phases "ABCD";
     voltage_A 2401.7771;
     voltage_B -1200.8886-2080.000j;
     voltage_C -1200.8886+2080.000j;
     constant_current_A 0+0j;
     constant_current_B 0+0j;
     constant_current_C -17.2414+51.8677j;
     nominal_voltage 2401.7771;
}
object meter{
    name meter_Load611;
     phases "CN";
     voltage_A 2401.7771;
     voltage_B -1200.8886-2080.000j;
     voltage_C -1200.8886+2080.000j;
     nominal_voltage 2401.7771;
}
object load { //611 {
     name l611;
	parent meter_Load611;
     phases "CN";
     voltage_A 2401.7771;
     voltage_B -1200.8886-2080.000j;
     voltage_C -1200.8886+2080.000j;
     constant_current_C -6.5443+77.9524j;
     constant_impedance_C 0.00-57.6854j;         //Shunt Capacitor
     nominal_voltage 2401.7771;
}
 
// distributed load between node 632 and 671
// 2/3 of load 1/4 of length down line: Kersting p.56
object load { //6711 {
     name l6711;
     parent l671;
     phases "ABC";
     voltage_A 2401.7771;
     voltage_B -1200.8886-2080.000j;
     voltage_C -1200.8886+2080.000j;
     constant_power_A 5666.6667+3333.3333j;
     constant_power_B 22000+12666.6667j;
     constant_power_C 39000+22666.6667j;
     nominal_voltage 2401.7771;
}
object meter{
    name meter_Load6321;
     phases "ABCN";
     voltage_A 2401.7771;
     voltage_B -1200.8886-2080.000j;
     voltage_C -1200.8886+2080.000j;
     nominal_voltage 2401.7771;
}
object load { //6321 {
     name l6321;
	parent meter_Load6321;
     phases "ABCN";
     voltage_A 2401.7771;
     voltage_B -1200.8886-2080.000j;
     voltage_C -1200.8886+2080.000j;
     constant_power_A 11333.333+6666.6667j;
     constant_power_B 44000+25333.3333j;
     constant_power_C 78000+45333.3333j;
     nominal_voltage 2401.7771;
}
 

 
// Switch
object switch {
     phases "ABCN";
     name switch_671-692;
    from l671;
     to l692;
     status CLOSED;
}
 
// Transformer
object transformer_configuration {
	name tc400;
	connect_type WYE_WYE;
  	install_type PADMOUNT;
  	power_rating 500;
  	primary_voltage 4160;
  	secondary_voltage 480;
  	resistance 0.011;
  	reactance 0.02;
}
  
object transformer {
  	phases "ABCN";
  	name transformer_633-634;
  	from n633;
  	to l634;
  	configuration tc400;
}
  
 
// Regulator
object regulator_configuration {
	name regconfig6506321;
	connect_type 1;
	band_center 122.000;
	band_width 100000.0;
	time_delay 30.0;
	raise_taps 16;
	lower_taps 16;
	current_transducer_ratio 700;
	power_transducer_ratio 20;
	compensator_r_setting_A 3.0;
	compensator_r_setting_B 3.0;
	compensator_r_setting_C 3.0;
	compensator_x_setting_A 9.0;
	compensator_x_setting_B 9.0;
	compensator_x_setting_C 9.0;
	CT_phase "ABC";
	PT_phase "ABC";
	regulation 0.10;
	Control MANUAL;
	Type A;
	tap_pos_A 10;
	tap_pos_B 8;
	tap_pos_C 11;
}
  
object regulator {
	 name fregn650n630;
	 phases "ABC";
	 from n650;
	 to n630;
	 configuration regconfig6506321;
}
object multi_recorder{
	interval 3600;
	property l671:constant_power_A,l671:constant_power_B,l671:constant_power_C,l6711:constant_power_A,l6711:constant_power_B,l6711:constant_power_C;
	file Load671Power.csv;
}
object multi_recorder{
	interval 3600;
	property l671:voltage_A,l671:voltage_B,l671:voltage_C,l6711:voltage_A,l6711:voltage_B,l6711:voltage_C;
	file Load671Vol.csv;
}
object player
{
         parent l675;
         property constant_power_A;
         file IEEE13Load_profile_1A.player;
}
object player
{
         parent l675;
         property constant_power_B;
         file IEEE13Load_profile_1B.player;
}
object player
{
         parent l675;
         property constant_power_C;
         file IEEE13Load_profile_1C.player;
}
object player
{
         parent l645;
         property constant_power_B;
         file IEEE13Load_profile_2B.player;
}
object player
{
         parent l6321;
         property constant_power_A;
         file IEEE13Load_profile_3A.player;
}
object player
{
         parent l6321;
         property constant_power_B;
         file IEEE13Load_profile_3B.player;
}
object player
{
         parent l6321;
         property constant_power_C;
         file IEEE13Load_profile_3C.player;
}
object player
{
         parent l6711;
         property constant_power_A;
         file IEEE13Load_profile_4A.player;
}
object player
{
         parent l6711;
         property constant_power_B;
         file IEEE13Load_profile_4B.player;
}
object player
{
         parent l6711;
         property constant_power_C;
         file IEEE13Load_profile_4C.player;
}
object player
{
         parent l634;
         property constant_power_A;
         file IEEE13Load_profile_5A.player;
}
object player
{
         parent l634;
         property constant_power_B;
         file IEEE13Load_profile_5B.player;
}
object player
{
         parent l634;
         property constant_power_C;
         file IEEE13Load_profile_5C.player;
}
object player
{
         parent l671;
         property constant_power_A;
         file IEEE13Load_profile_6A.player;
}
object player
{
         parent l671;
         property constant_power_B;
         file IEEE13Load_profile_6B.player;
}
object player
{
         parent l671;
         property constant_power_C;
         file IEEE13Load_profile_6C.player;
}
object voltdump
{
         filename "output_voltage_0.csv";
         runtime '2000-01-01 00:01:00';
         mode polar;
}
object voltdump
{
         filename "output_voltage_1.csv";
         runtime '2000-01-01 01:01:00';
         mode polar;
}
object voltdump
{
         filename "output_voltage_2.csv";
         runtime '2000-01-01 02:01:00';
         mode polar;
}
object voltdump
{
         filename "output_voltage_3.csv";
         runtime '2000-01-01 03:01:00';
         mode polar;
}
object voltdump
{
         filename "output_voltage_4.csv";
         runtime '2000-01-01 04:01:00';
         mode polar;
}
object voltdump
{
         filename "output_voltage_5.csv";
         runtime '2000-01-01 05:01:00';
         mode polar;
}
object voltdump
{
         filename "output_voltage_6.csv";
         runtime '2000-01-01 06:01:00';
         mode polar;
}
object voltdump
{
         filename "output_voltage_7.csv";
         runtime '2000-01-01 07:01:00';
         mode polar;
}
object voltdump
{
         filename "output_voltage_8.csv";
         runtime '2000-01-01 08:01:00';
         mode polar;
}
object voltdump
{
         filename "output_voltage_9.csv";
         runtime '2000-01-01 09:01:00';
         mode polar;
}
object voltdump
{
         filename "output_voltage_10.csv";
         runtime '2000-01-01 10:01:00';
         mode polar;
}
object voltdump
{
         filename "output_voltage_11.csv";
         runtime '2000-01-01 11:01:00';
         mode polar;
}
object voltdump
{
         filename "output_voltage_12.csv";
         runtime '2000-01-01 12:01:00';
         mode polar;
}
object voltdump
{
         filename "output_voltage_13.csv";
         runtime '2000-01-01 13:01:00';
         mode polar;
}
object voltdump
{
         filename "output_voltage_14.csv";
         runtime '2000-01-01 14:01:00';
         mode polar;
}
object voltdump
{
         filename "output_voltage_15.csv";
         runtime '2000-01-01 15:01:00';
         mode polar;
}
object voltdump
{
         filename "output_voltage_16.csv";
         runtime '2000-01-01 16:01:00';
         mode polar;
}
object voltdump
{
         filename "output_voltage_17.csv";
         runtime '2000-01-01 17:01:00';
         mode polar;
}
object voltdump
{
         filename "output_voltage_18.csv";
         runtime '2000-01-01 18:01:00';
         mode polar;
}
object voltdump
{
         filename "output_voltage_19.csv";
         runtime '2000-01-01 19:01:00';
         mode polar;
}
object voltdump
{
         filename "output_voltage_20.csv";
         runtime '2000-01-01 20:01:00';
         mode polar;
}
object voltdump
{
         filename "output_voltage_21.csv";
         runtime '2000-01-01 21:01:00';
         mode polar;
}
object voltdump
{
         filename "output_voltage_22.csv";
         runtime '2000-01-01 22:01:00';
         mode polar;
}
object voltdump
{
         filename "output_voltage_23.csv";
         runtime '2000-01-01 23:01:00';
         mode polar;
}
object voltdump
{
         filename "output_voltage_24.csv";
         runtime '2000-01-02 00:01:00';
         mode polar;
}
object voltdump
{
         filename "output_voltage_25.csv";
         runtime '2000-01-02 01:01:00';
         mode polar;
}
object voltdump
{
         filename "output_voltage_26.csv";
         runtime '2000-01-02 02:01:00';
         mode polar;
}
object voltdump
{
         filename "output_voltage_27.csv";
         runtime '2000-01-02 03:01:00';
         mode polar;
}
object voltdump
{
         filename "output_voltage_28.csv";
         runtime '2000-01-02 04:01:00';
         mode polar;
}
object voltdump
{
         filename "output_voltage_29.csv";
         runtime '2000-01-02 05:01:00';
         mode polar;
}
object voltdump
{
         filename "output_voltage_30.csv";
         runtime '2000-01-02 06:01:00';
         mode polar;
}
object voltdump
{
         filename "output_voltage_31.csv";
         runtime '2000-01-02 07:01:00';
         mode polar;
}
object voltdump
{
         filename "output_voltage_32.csv";
         runtime '2000-01-02 08:01:00';
         mode polar;
}
object voltdump
{
         filename "output_voltage_33.csv";
         runtime '2000-01-02 09:01:00';
         mode polar;
}
object voltdump
{
         filename "output_voltage_34.csv";
         runtime '2000-01-02 10:01:00';
         mode polar;
}
object voltdump
{
         filename "output_voltage_35.csv";
         runtime '2000-01-02 11:01:00';
         mode polar;
}
object voltdump
{
         filename "output_voltage_36.csv";
         runtime '2000-01-02 12:01:00';
         mode polar;
}
object voltdump
{
         filename "output_voltage_37.csv";
         runtime '2000-01-02 13:01:00';
         mode polar;
}
object voltdump
{
         filename "output_voltage_38.csv";
         runtime '2000-01-02 14:01:00';
         mode polar;
}
object voltdump
{
         filename "output_voltage_39.csv";
         runtime '2000-01-02 15:01:00';
         mode polar;
}
object voltdump
{
         filename "output_voltage_40.csv";
         runtime '2000-01-02 16:01:00';
         mode polar;
}
object voltdump
{
         filename "output_voltage_41.csv";
         runtime '2000-01-02 17:01:00';
         mode polar;
}
object voltdump
{
         filename "output_voltage_42.csv";
         runtime '2000-01-02 18:01:00';
         mode polar;
}
object voltdump
{
         filename "output_voltage_43.csv";
         runtime '2000-01-02 19:01:00';
         mode polar;
}
object voltdump
{
         filename "output_voltage_44.csv";
         runtime '2000-01-02 20:01:00';
         mode polar;
}
object voltdump
{
         filename "output_voltage_45.csv";
         runtime '2000-01-02 21:01:00';
         mode polar;
}
object voltdump
{
         filename "output_voltage_46.csv";
         runtime '2000-01-02 22:01:00';
         mode polar;
}
object voltdump
{
         filename "output_voltage_47.csv";
         runtime '2000-01-02 23:01:00';
         mode polar;
}
object voltdump
{
         filename "output_voltage_48.csv";
         runtime '2000-01-03 00:01:00';
         mode polar;
}
object voltdump
{
         filename "output_voltage_49.csv";
         runtime '2000-01-03 01:01:00';
         mode polar;
}
object voltdump
{
         filename "output_voltage_50.csv";
         runtime '2000-01-03 02:01:00';
         mode polar;
}
object voltdump
{
         filename "output_voltage_51.csv";
         runtime '2000-01-03 03:01:00';
         mode polar;
}
object voltdump
{
         filename "output_voltage_52.csv";
         runtime '2000-01-03 04:01:00';
         mode polar;
}
object voltdump
{
         filename "output_voltage_53.csv";
         runtime '2000-01-03 05:01:00';
         mode polar;
}
object voltdump
{
         filename "output_voltage_54.csv";
         runtime '2000-01-03 06:01:00';
         mode polar;
}
object voltdump
{
         filename "output_voltage_55.csv";
         runtime '2000-01-03 07:01:00';
         mode polar;
}
object voltdump
{
         filename "output_voltage_56.csv";
         runtime '2000-01-03 08:01:00';
         mode polar;
}
object voltdump
{
         filename "output_voltage_57.csv";
         runtime '2000-01-03 09:01:00';
         mode polar;
}
object voltdump
{
         filename "output_voltage_58.csv";
         runtime '2000-01-03 10:01:00';
         mode polar;
}
object voltdump
{
         filename "output_voltage_59.csv";
         runtime '2000-01-03 11:01:00';
         mode polar;
}
object voltdump
{
         filename "output_voltage_60.csv";
         runtime '2000-01-03 12:01:00';
         mode polar;
}
object voltdump
{
         filename "output_voltage_61.csv";
         runtime '2000-01-03 13:01:00';
         mode polar;
}
object voltdump
{
         filename "output_voltage_62.csv";
         runtime '2000-01-03 14:01:00';
         mode polar;
}
object voltdump
{
         filename "output_voltage_63.csv";
         runtime '2000-01-03 15:01:00';
         mode polar;
}
object voltdump
{
         filename "output_voltage_64.csv";
         runtime '2000-01-03 16:01:00';
         mode polar;
}
object voltdump
{
         filename "output_voltage_65.csv";
         runtime '2000-01-03 17:01:00';
         mode polar;
}
object voltdump
{
         filename "output_voltage_66.csv";
         runtime '2000-01-03 18:01:00';
         mode polar;
}
object voltdump
{
         filename "output_voltage_67.csv";
         runtime '2000-01-03 19:01:00';
         mode polar;
}
object voltdump
{
         filename "output_voltage_68.csv";
         runtime '2000-01-03 20:01:00';
         mode polar;
}
object voltdump
{
         filename "output_voltage_69.csv";
         runtime '2000-01-03 21:01:00';
         mode polar;
}
object voltdump
{
         filename "output_voltage_70.csv";
         runtime '2000-01-03 22:01:00';
         mode polar;
}
object voltdump
{
         filename "output_voltage_71.csv";
         runtime '2000-01-03 23:01:00';
         mode polar;
}
object voltdump
{
         filename "output_voltage_72.csv";
         runtime '2000-01-04 00:01:00';
         mode polar;
}
object voltdump
{
         filename "output_voltage_73.csv";
         runtime '2000-01-04 01:01:00';
         mode polar;
}
object voltdump
{
         filename "output_voltage_74.csv";
         runtime '2000-01-04 02:01:00';
         mode polar;
}
object voltdump
{
         filename "output_voltage_75.csv";
         runtime '2000-01-04 03:01:00';
         mode polar;
}
object voltdump
{
         filename "output_voltage_76.csv";
         runtime '2000-01-04 04:01:00';
         mode polar;
}
object voltdump
{
         filename "output_voltage_77.csv";
         runtime '2000-01-04 05:01:00';
         mode polar;
}
object voltdump
{
         filename "output_voltage_78.csv";
         runtime '2000-01-04 06:01:00';
         mode polar;
}
object voltdump
{
         filename "output_voltage_79.csv";
         runtime '2000-01-04 07:01:00';
         mode polar;
}
object voltdump
{
         filename "output_voltage_80.csv";
         runtime '2000-01-04 08:01:00';
         mode polar;
}
object voltdump
{
         filename "output_voltage_81.csv";
         runtime '2000-01-04 09:01:00';
         mode polar;
}
object voltdump
{
         filename "output_voltage_82.csv";
         runtime '2000-01-04 10:01:00';
         mode polar;
}
object voltdump
{
         filename "output_voltage_83.csv";
         runtime '2000-01-04 11:01:00';
         mode polar;
}
object voltdump
{
         filename "output_voltage_84.csv";
         runtime '2000-01-04 12:01:00';
         mode polar;
}
object voltdump
{
         filename "output_voltage_85.csv";
         runtime '2000-01-04 13:01:00';
         mode polar;
}
object voltdump
{
         filename "output_voltage_86.csv";
         runtime '2000-01-04 14:01:00';
         mode polar;
}
object voltdump
{
         filename "output_voltage_87.csv";
         runtime '2000-01-04 15:01:00';
         mode polar;
}
object voltdump
{
         filename "output_voltage_88.csv";
         runtime '2000-01-04 16:01:00';
         mode polar;
}
object voltdump
{
         filename "output_voltage_89.csv";
         runtime '2000-01-04 17:01:00';
         mode polar;
}
object voltdump
{
         filename "output_voltage_90.csv";
         runtime '2000-01-04 18:01:00';
         mode polar;
}
object voltdump
{
         filename "output_voltage_91.csv";
         runtime '2000-01-04 19:01:00';
         mode polar;
}
object voltdump
{
         filename "output_voltage_92.csv";
         runtime '2000-01-04 20:01:00';
         mode polar;
}
object voltdump
{
         filename "output_voltage_93.csv";
         runtime '2000-01-04 21:01:00';
         mode polar;
}
object voltdump
{
         filename "output_voltage_94.csv";
         runtime '2000-01-04 22:01:00';
         mode polar;
}
object voltdump
{
         filename "output_voltage_95.csv";
         runtime '2000-01-04 23:01:00';
         mode polar;
}
object voltdump
{
         filename "output_voltage_96.csv";
         runtime '2000-01-05 00:01:00';
         mode polar;
}
object voltdump
{
         filename "output_voltage_97.csv";
         runtime '2000-01-05 01:01:00';
         mode polar;
}
object voltdump
{
         filename "output_voltage_98.csv";
         runtime '2000-01-05 02:01:00';
         mode polar;
}
object voltdump
{
         filename "output_voltage_99.csv";
         runtime '2000-01-05 03:01:00';
         mode polar;
}
object voltdump
{
         filename "output_voltage_100.csv";
         runtime '2000-01-05 04:01:00';
         mode polar;
}
object voltdump
{
         filename "output_voltage_101.csv";
         runtime '2000-01-05 05:01:00';
         mode polar;
}
object voltdump
{
         filename "output_voltage_102.csv";
         runtime '2000-01-05 06:01:00';
         mode polar;
}
object voltdump
{
         filename "output_voltage_103.csv";
         runtime '2000-01-05 07:01:00';
         mode polar;
}
object voltdump
{
         filename "output_voltage_104.csv";
         runtime '2000-01-05 08:01:00';
         mode polar;
}
object voltdump
{
         filename "output_voltage_105.csv";
         runtime '2000-01-05 09:01:00';
         mode polar;
}
object voltdump
{
         filename "output_voltage_106.csv";
         runtime '2000-01-05 10:01:00';
         mode polar;
}
object voltdump
{
         filename "output_voltage_107.csv";
         runtime '2000-01-05 11:01:00';
         mode polar;
}
object voltdump
{
         filename "output_voltage_108.csv";
         runtime '2000-01-05 12:01:00';
         mode polar;
}
object voltdump
{
         filename "output_voltage_109.csv";
         runtime '2000-01-05 13:01:00';
         mode polar;
}
object voltdump
{
         filename "output_voltage_110.csv";
         runtime '2000-01-05 14:01:00';
         mode polar;
}
object voltdump
{
         filename "output_voltage_111.csv";
         runtime '2000-01-05 15:01:00';
         mode polar;
}
object voltdump
{
         filename "output_voltage_112.csv";
         runtime '2000-01-05 16:01:00';
         mode polar;
}
object voltdump
{
         filename "output_voltage_113.csv";
         runtime '2000-01-05 17:01:00';
         mode polar;
}
object voltdump
{
         filename "output_voltage_114.csv";
         runtime '2000-01-05 18:01:00';
         mode polar;
}
object voltdump
{
         filename "output_voltage_115.csv";
         runtime '2000-01-05 19:01:00';
         mode polar;
}
object voltdump
{
         filename "output_voltage_116.csv";
         runtime '2000-01-05 20:01:00';
         mode polar;
}
object voltdump
{
         filename "output_voltage_117.csv";
         runtime '2000-01-05 21:01:00';
         mode polar;
}
object voltdump
{
         filename "output_voltage_118.csv";
         runtime '2000-01-05 22:01:00';
         mode polar;
}
object voltdump
{
         filename "output_voltage_119.csv";
         runtime '2000-01-05 23:01:00';
         mode polar;
}
object voltdump
{
         filename "output_voltage_120.csv";